# generated using pymatgen
data_Li7Si3
_symmetry_space_group_name_H-M   'P 1'
_cell_length_a   7.57987225
_cell_length_b   7.57987225
_cell_length_c   18.00274400
_cell_angle_alpha   90.00000000
_cell_angle_beta   90.00000000
_cell_angle_gamma   120.00000000
_symmetry_Int_Tables_number   1
_chemical_formula_structural   Li7Si3
_chemical_formula_sum   'Li42 Si18'
_cell_volume   895.76298009
_cell_formula_units_Z   6
loop_
 _symmetry_equiv_pos_site_id
 _symmetry_equiv_pos_as_xyz
  1  'x, y, z'
loop_
 _atom_site_type_symbol
 _atom_site_label
 _atom_site_symmetry_multiplicity
 _atom_site_fract_x
 _atom_site_fract_y
 _atom_site_fract_z
 _atom_site_occupancy
  Li  Li0  1  0.88880200  0.11119800  0.66666667  1
  Li  Li1  1  0.88880200  0.77760400  0.33333333  1
  Li  Li2  1  0.22239600  0.11119800  0.00000000  1
  Li  Li3  1  0.55671500  0.44328500  0.66666667  1
  Li  Li4  1  0.55671500  0.11343000  0.33333333  1
  Li  Li5  1  0.88657000  0.44328500  0.00000000  1
  Li  Li6  1  0.22465900  0.44691900  0.19849000  1
  Li  Li7  1  0.55308100  0.77774000  0.86515667  1
  Li  Li8  1  0.22226000  0.77534100  0.53182333  1
  Li  Li9  1  0.22465900  0.77774000  0.80151000  1
  Li  Li10  1  0.55308100  0.77534100  0.13484333  1
  Li  Li11  1  0.22226000  0.44691900  0.46817667  1
  Li  Li12  1  0.24348600  0.46677100  0.04458600  1
  Li  Li13  1  0.53322900  0.77671500  0.71125267  1
  Li  Li14  1  0.22328500  0.75651400  0.37791933  1
  Li  Li15  1  0.24348600  0.77671500  0.95541400  1
  Li  Li16  1  0.53322900  0.75651400  0.28874733  1
  Li  Li17  1  0.22328500  0.46677100  0.62208067  1
  Li  Li18  1  0.89177300  0.11391500  0.51645100  1
  Li  Li19  1  0.88608500  0.77785800  0.18311767  1
  Li  Li20  1  0.22214200  0.10822700  0.84978433  1
  Li  Li21  1  0.89177300  0.77785800  0.48354900  1
  Li  Li22  1  0.88608500  0.10822700  0.81688233  1
  Li  Li23  1  0.22214200  0.11391500  0.15021567  1
  Li  Li24  1  0.91278900  0.13468200  0.37353400  1
  Li  Li25  1  0.86531800  0.77810700  0.04020067  1
  Li  Li26  1  0.22189300  0.08721100  0.70686733  1
  Li  Li27  1  0.91278900  0.77810700  0.62646600  1
  Li  Li28  1  0.86531800  0.08721100  0.95979933  1
  Li  Li29  1  0.22189300  0.13468200  0.29313267  1
  Li  Li30  1  0.89219300  0.44705600  0.84952900  1
  Li  Li31  1  0.55294400  0.44513700  0.51619567  1
  Li  Li32  1  0.55486300  0.10780700  0.18286233  1
  Li  Li33  1  0.89219300  0.44513700  0.15047100  1
  Li  Li34  1  0.55294400  0.10780700  0.48380433  1
  Li  Li35  1  0.55486300  0.44705600  0.81713767  1
  Li  Li36  1  0.91425200  0.46887600  0.70650400  1
  Li  Li37  1  0.53112400  0.44537600  0.37317067  1
  Li  Li38  1  0.55462400  0.08574800  0.03983733  1
  Li  Li39  1  0.91425200  0.44537600  0.29349600  1
  Li  Li40  1  0.53112400  0.08574800  0.62682933  1
  Li  Li41  1  0.55462400  0.46887600  0.96016267  1
  Si  Si42  1  0.20898100  0.42603200  0.89913700  1
  Si  Si43  1  0.57396800  0.78294900  0.56580367  1
  Si  Si44  1  0.21705100  0.79101900  0.23247033  1
  Si  Si45  1  0.20898100  0.78294900  0.10086300  1
  Si  Si46  1  0.57396800  0.79101900  0.43419633  1
  Si  Si47  1  0.21705100  0.42603200  0.76752967  1
  Si  Si48  1  0.87939800  0.10224900  0.23189800  1
  Si  Si49  1  0.89775100  0.77714900  0.89856467  1
  Si  Si50  1  0.22285100  0.12060200  0.56523133  1
  Si  Si51  1  0.87939800  0.77714900  0.76810200  1
  Si  Si52  1  0.89775100  0.12060200  0.10143533  1
  Si  Si53  1  0.22285100  0.10224900  0.43476867  1
  Si  Si54  1  0.87118600  0.43140400  0.56533900  1
  Si  Si55  1  0.56859600  0.43978200  0.23200567  1
  Si  Si56  1  0.56021800  0.12881400  0.89867233  1
  Si  Si57  1  0.87118600  0.43978200  0.43466100  1
  Si  Si58  1  0.56859600  0.12881400  0.76799433  1
  Si  Si59  1  0.56021800  0.43140400  0.10132767  1
